<routes>

    <route id="1" edges="1" />
    <route id="2" edges="2" />

</routes>