<routes>

    <route id="1" edges="1_r 1_l" />
    <route id="2" edges="2" />

</routes>